results/case30.log
components INFO: case_file = case30
components INFO: Solve the power flow

components INFO: Total P gens     191.644 MW
components INFO: Total P load     189.200 MW
components INFO: Total P losses     2.444 MW

components INFO: Total Q gens     100.415 Mvar
components INFO: Total Q shunts     0.222 Mvar
components INFO: Total Q load     107.200 Mvar
components INFO: Total Q losses    -6.563 Mvar

components INFO: Read bus coordinates
components INFO: Calculate active power flow components
makeAPFC INFO: Starting ...
makeActiveFlows INFO: Swap branch orientation when both PF and PT are negative (14)
makeActiveFlows DEBUG: Before swap
    F_BUS  T_BUS      PF      PT
13      4     12  -1.672  -1.672
14     12     13 -37.000 -37.000
18     14     15  -0.849  -0.852
22     19     20  -3.654  -3.663
25     10     21  -2.234  -2.278
26     10     22  -3.755  -3.817
27     21     22 -19.778 -19.871
28     15     23  -8.805  -8.915
29     22     24  -2.098  -2.176
31     24     25  -3.857  -3.892
33     25     27  -7.438  -7.501
34     28     27  -6.113  -6.113
38      8     28  -5.306  -5.341
39      6     28  -0.770  -0.772
makeActiveFlows DEBUG: After swap
    F_BUS  T_BUS      PF      PT
13     12      4   1.672   1.672
14     13     12  37.000  37.000
18     15     14   0.852   0.849
22     20     19   3.663   3.654
25     21     10   2.278   2.234
26     22     10   3.817   3.755
27     22     21  19.871  19.778
28     23     15   8.915   8.805
29     24     22   2.176   2.098
31     25     24   3.892   3.857
33     27     25   7.501   7.438
34     27     28   6.113   6.113
38     28      8   5.341   5.306
39     28      6   0.772   0.770
makeAPFC DEBUG: =============== Sets A and B ===============
makeAPFC DEBUG: A[1] = {'E1': {'P': 10.890572859384307, 'side': 'PF', 'sign': 1}, 'E2': {'P': 15.083230197493581, 'side': 'PF', 'sign': 1}}
makeAPFC DEBUG: B[1] = {'G1': {'P': 25.97380305687791, 'side': 'PT', 'sign': 1}}

makeAPFC DEBUG: A[2] = {'E3': {'P': 16.067334025612343, 'side': 'PF', 'sign': 1}, 'E5': {'P': 13.791855118767526, 'side': 'PF', 'sign': 1}, 'E6': {'P': 20.275090369828106, 'side': 'PF', 'sign': 1}, 'L2': {'P': 21.7, 'side': 'PF', 'sign': 1}}
makeAPFC DEBUG: B[2] = {'E1': {'P': 10.864279535785071, 'side': 'PT', 'sign': 1}, 'G2': {'P': 60.97, 'side': 'PT', 'sign': 1}}

makeAPFC DEBUG: A[3] = {'E4': {'P': 12.556534972804162, 'side': 'PF', 'sign': 1}, 'L3': {'P': 2.4, 'side': 'PF', 'sign': 1}}
makeAPFC DEBUG: B[3] = {'E2': {'P': 14.956534996506715, 'side': 'PT', 'sign': 1}}

makeAPFC DEBUG: A[4] = {'E7': {'P': 22.499134638999738, 'side': 'PF', 'sign': 1}, 'L4': {'P': 7.6, 'side': 'PF', 'sign': 1}}
makeAPFC DEBUG: B[4] = {'E3': {'P': 15.88932825908555, 'side': 'PT', 'sign': 1}, 'E4': {'P': 12.538244378560211, 'side': 'PT', 'sign': 1}, 'E14': {'P': 1.6715620287674995, 'side': 'PT', 'sign': 1}}

makeAPFC DEBUG: A[5] = {'E8': {'P': 13.681590188745533, 'side': 'PF', 'sign': 1}}
makeAPFC DEBUG: B[5] = {'E5': {'P': 13.681590208861246, 'side': 'PT', 'sign': 1}}

makeAPFC DEBUG: A[6] = {'E9': {'P': 9.270031201068022, 'side': 'PF', 'sign': 1}, 'E10': {'P': 24.82230991469626, 'side': 'PF', 'sign': 1}, 'E11': {'P': 5.788958195273975, 'side': 'PF', 'sign': 1}, 'E12': {'P': 3.307976114400277, 'side': 'PF', 'sign': 1}}
makeAPFC DEBUG: B[6] = {'E6': {'P': 19.98588821180352, 'side': 'PT', 'sign': 1}, 'E7': {'P': 22.432943046237575, 'side': 'PT', 'sign': 1}, 'E40': {'P': 0.7704442331875749, 'side': 'PT', 'sign': 1}}

makeAPFC DEBUG: A[7] = {'L7': {'P': 22.8, 'side': 'PF', 'sign': 1}}
makeAPFC DEBUG: B[7] = {'E8': {'P': 13.561387515134953, 'side': 'PT', 'sign': 1}, 'E9': {'P': 9.238612441753236, 'side': 'PT', 'sign': 1}}

makeAPFC DEBUG: A[8] = {'L8': {'P': 30.0, 'side': 'PF', 'sign': 1}}
makeAPFC DEBUG: B[8] = {'E10': {'P': 24.6942457786484, 'side': 'PT', 'sign': 1}, 'E39': {'P': 5.305754125651575, 'side': 'PT', 'sign': 1}}

makeAPFC DEBUG: A[9] = {'E13': {'P': 5.7889582098411685, 'side': 'PF', 'sign': 1}}
makeAPFC DEBUG: B[9] = {'E11': {'P': 5.788958195273976, 'side': 'PT', 'sign': 1}}

makeAPFC DEBUG: A[10] = {'E24': {'P': 5.915586873348127, 'side': 'PF', 'sign': 1}, 'E25': {'P': 3.369970804146068, 'side': 'PF', 'sign': 1}, 'L10': {'P': 5.8, 'side': 'PF', 'sign': 1}}
makeAPFC DEBUG: B[10] = {'E12': {'P': 3.307976114400277, 'side': 'PT', 'sign': 1}, 'E13': {'P': 5.7889582098411685, 'side': 'PT', 'sign': 1}, 'E26': {'P': 2.2338259389292165, 'side': 'PT', 'sign': 1}, 'E27': {'P': 3.7547973995913773, 'side': 'PT', 'sign': 1}}

makeAPFC DEBUG: A[12] = {'E14': {'P': 1.6715620287675, 'side': 'PF', 'sign': 1}, 'E16': {'P': 5.387777267210772, 'side': 'PF', 'sign': 1}, 'E17': {'P': 9.477029234467182, 'side': 'PF', 'sign': 1}, 'E18': {'P': 9.26363145964912, 'side': 'PF', 'sign': 1}, 'L12': {'P': 11.2, 'side': 'PF', 'sign': 1}}
makeAPFC DEBUG: B[12] = {'E15': {'P': 36.99999999650326, 'side': 'PT', 'sign': 1}}

makeAPFC DEBUG: A[13] = {'E15': {'P': 36.999999996503256, 'side': 'PF', 'sign': 1}}
makeAPFC DEBUG: B[13] = {'G13': {'P': 37.0, 'side': 'PT', 'sign': 1}}

makeAPFC DEBUG: A[14] = {'L14': {'P': 6.2, 'side': 'PF', 'sign': 1}}
makeAPFC DEBUG: B[14] = {'E16': {'P': 5.350953753221079, 'side': 'PT', 'sign': 1}, 'E19': {'P': 0.8490462419371188, 'side': 'PT', 'sign': 1}}

makeAPFC DEBUG: A[15] = {'E19': {'P': 0.8521875381446258, 'side': 'PF', 'sign': 1}, 'E21': {'P': 9.164594704160722, 'side': 'PF', 'sign': 1}, 'L15': {'P': 8.2, 'side': 'PF', 'sign': 1}}
makeAPFC DEBUG: B[15] = {'E17': {'P': 9.4114764633922, 'side': 'PT', 'sign': 1}, 'E29': {'P': 8.805305769580865, 'side': 'PT', 'sign': 1}}

makeAPFC DEBUG: A[16] = {'E20': {'P': 5.684094077085416, 'side': 'PF', 'sign': 1}, 'L16': {'P': 3.5, 'side': 'PF', 'sign': 1}}
makeAPFC DEBUG: B[16] = {'E18': {'P': 9.184094073241077, 'side': 'PT', 'sign': 1}}

makeAPFC DEBUG: A[17] = {'L17': {'P': 9.0, 'side': 'PF', 'sign': 1}}
makeAPFC DEBUG: B[17] = {'E20': {'P': 5.6534224173176915, 'side': 'PT', 'sign': 1}, 'E25': {'P': 3.3465775762443966, 'side': 'PT', 'sign': 1}}

makeAPFC DEBUG: A[18] = {'E22': {'P': 5.867780714030913, 'side': 'PF', 'sign': 1}, 'L18': {'P': 3.2, 'side': 'PF', 'sign': 1}}
makeAPFC DEBUG: B[18] = {'E21': {'P': 9.06778071313278, 'side': 'PT', 'sign': 1}}

makeAPFC DEBUG: A[19] = {'L19': {'P': 9.5, 'side': 'PF', 'sign': 1}}
makeAPFC DEBUG: B[19] = {'E22': {'P': 5.845682480101572, 'side': 'PT', 'sign': 1}, 'E23': {'P': 3.654317502840318, 'side': 'PT', 'sign': 1}}

makeAPFC DEBUG: A[20] = {'E23': {'P': 3.6632218115344934, 'side': 'PF', 'sign': 1}, 'L20': {'P': 2.2, 'side': 'PF', 'sign': 1}}
makeAPFC DEBUG: B[20] = {'E24': {'P': 5.863221813294772, 'side': 'PT', 'sign': 1}}

makeAPFC DEBUG: A[21] = {'E26': {'P': 2.2775105800321502, 'side': 'PF', 'sign': 1}, 'L21': {'P': 17.5, 'side': 'PF', 'sign': 1}}
makeAPFC DEBUG: B[21] = {'E28': {'P': 19.777510575982863, 'side': 'PT', 'sign': 1}}

makeAPFC DEBUG: A[22] = {'E27': {'P': 3.816959679597434, 'side': 'PF', 'sign': 1}, 'E28': {'P': 19.870610716352836, 'side': 'PF', 'sign': 1}}
makeAPFC DEBUG: B[22] = {'E30': {'P': 2.09757039295989, 'side': 'PT', 'sign': 1}, 'G22': {'P': 21.59, 'side': 'PT', 'sign': 1}}

makeAPFC DEBUG: A[23] = {'E29': {'P': 8.91466656447381, 'side': 'PF', 'sign': 1}, 'E31': {'P': 7.085333440242353, 'side': 'PF', 'sign': 1}, 'L23': {'P': 3.2, 'side': 'PF', 'sign': 1}}
makeAPFC DEBUG: B[23] = {'G23': {'P': 19.2, 'side': 'PT', 'sign': 1}}

makeAPFC DEBUG: A[24] = {'E30': {'P': 2.1758378239886063, 'side': 'PF', 'sign': 1}, 'L24': {'P': 8.7, 'side': 'PF', 'sign': 1}}
makeAPFC DEBUG: B[24] = {'E31': {'P': 7.019055421380161, 'side': 'PT', 'sign': 1}, 'E32': {'P': 3.856782402375695, 'side': 'PT', 'sign': 1}}

makeAPFC DEBUG: A[25] = {'E32': {'P': 3.8917707977426588, 'side': 'PF', 'sign': 1}, 'E33': {'P': 3.5463941891996504, 'side': 'PF', 'sign': 1}}
makeAPFC DEBUG: B[25] = {'E34': {'P': 7.438164986973263, 'side': 'PT', 'sign': 1}}

makeAPFC DEBUG: A[26] = {'L26': {'P': 3.5, 'side': 'PF', 'sign': 1}}
makeAPFC DEBUG: B[26] = {'E33': {'P': 3.4999999998211817, 'side': 'PT', 'sign': 1}}

makeAPFC DEBUG: A[27] = {'E34': {'P': 7.5007280461246575, 'side': 'PF', 'sign': 1}, 'E35': {'P': 6.112995010702004, 'side': 'PF', 'sign': 1}, 'E36': {'P': 6.173882002210096, 'side': 'PF', 'sign': 1}, 'E37': {'P': 7.122394947671047, 'side': 'PF', 'sign': 1}}
makeAPFC DEBUG: B[27] = {'G27': {'P': 26.91, 'side': 'PT', 'sign': 1}}

makeAPFC DEBUG: A[28] = {'E39': {'P': 5.3413788402797415, 'side': 'PF', 'sign': 1}, 'E40': {'P': 0.7716161805216454, 'side': 'PF', 'sign': 1}}
makeAPFC DEBUG: B[28] = {'E35': {'P': 6.112995010702004, 'side': 'PT', 'sign': 1}}

makeAPFC DEBUG: A[29] = {'E38': {'P': 3.683785909594939, 'side': 'PF', 'sign': 1}, 'L29': {'P': 2.4, 'side': 'PF', 'sign': 1}}
makeAPFC DEBUG: B[29] = {'E36': {'P': 6.083785911189028, 'side': 'PT', 'sign': 1}}

makeAPFC DEBUG: A[30] = {'L30': {'P': 10.6, 'side': 'PF', 'sign': 1}}
makeAPFC DEBUG: B[30] = {'E37': {'P': 6.951090401110046, 'side': 'PT', 'sign': 1}, 'E38': {'P': 3.6489095936350364, 'side': 'PT', 'sign': 1}}

makeAPFC DEBUG: =======================================================
makeAPFC DEBUG: Initial known components: ['G1', 'G2', 'G22', 'G27', 'G23', 'G13']
makeAPFC DEBUG: ========== Start of iteration 1 ==========
makeAPFC DEBUG: Processing bus k = 1
makeAPFC DEBUG: B[1]: ['G1'], [25.97380305687791], ['PT'], [1], sum(P) = 25.97380305687791
makeAPFC DEBUG: A[1]: ['E1', 'E2'], [10.890572859384307, 15.083230197493581], ['PF', 'PF'], [1, 1], sum(P) = 25.973803056877887
makeAPFC DEBUG: outflow: E1_PF (1-2)
makeAPFC DEBUG: f = 10.890572859384307/25.97380305687791 = 0.4192906535687489
makeAPFC DEBUG: inflow: G1.G1 = 25.97380305687791, CP = 10.890572859384307 --> component for: E1_PF.G1 (1-2)
makeAPFC DEBUG: P_other_side = 10.864279535785071 --> component for: E1_PT.G1
makeAPFC DEBUG: outflow: E2_PF (1-3)
makeAPFC DEBUG: f = 15.083230197493581/25.97380305687791 = 0.5807093464312503
makeAPFC DEBUG: inflow: G1.G1 = 25.97380305687791, CP = 15.083230197493581 --> component for: E2_PF.G1 (1-3)
makeAPFC DEBUG: P_other_side = 14.956534996506715 --> component for: E2_PT.G1
makeAPFC DEBUG: Processing bus k = 2
makeAPFC DEBUG: B[2]: ['E1', 'G2'], [10.864279535785071, 60.97], ['PT', 'PT'], [1, 1], sum(P) = 71.83427953578507
makeAPFC DEBUG: A[2]: ['E3', 'E5', 'E6', 'L2'], [16.067334025612343, 13.791855118767526, 20.275090369828106, 21.7], ['PF', 'PF', 'PF', 'PF'], [1, 1, 1, 1], sum(P) = 71.83427951420798
makeAPFC DEBUG: outflow: E3_PF (2-4)
makeAPFC DEBUG: f = 16.067334025612343/71.83427953578507 = 0.2236722373975814
makeAPFC DEBUG: inflow: E1.G1 = 10.864279535785071, CP = 2.430037711481804 --> component for: E3_PF.G1 (2-4)
makeAPFC DEBUG: P_other_side = 2.4031159629931125 --> component for: E3_PT.G1
makeAPFC DEBUG: inflow: G2.G2 = 60.97, CP = 13.637296314130538 --> component for: E3_PF.G2 (2-4)
makeAPFC DEBUG: P_other_side = 13.486212296092438 --> component for: E3_PT.G2
makeAPFC DEBUG: outflow: E5_PF (2-5)
makeAPFC DEBUG: f = 13.791855118767526/71.83427953578507 = 0.19199545409092542
makeAPFC DEBUG: inflow: E1.G1 = 10.864279535785071, CP = 2.0858922828438033 --> component for: E5_PF.G1 (2-5)
makeAPFC DEBUG: P_other_side = 2.0692157210135536 --> component for: E5_PT.G1
makeAPFC DEBUG: inflow: G2.G2 = 60.97, CP = 11.705962835923723 --> component for: E5_PF.G2 (2-5)
makeAPFC DEBUG: P_other_side = 11.612374487847694 --> component for: E5_PT.G2
makeAPFC DEBUG: outflow: E6_PF (2-6)
makeAPFC DEBUG: f = 20.275090369828106/71.83427953578507 = 0.28224812026865026
makeAPFC DEBUG: inflow: E1.G1 = 10.864279535785071, CP = 3.0664224770485005 --> component for: E6_PF.G1 (2-6)
makeAPFC DEBUG: P_other_side = 3.0226832886354504 --> component for: E6_PT.G1
makeAPFC DEBUG: inflow: G2.G2 = 60.97, CP = 17.208667892779605 --> component for: E6_PF.G2 (2-6)
makeAPFC DEBUG: P_other_side = 16.963204923168067 --> component for: E6_PT.G2
makeAPFC DEBUG: outflow: L2_PF (2-0)
makeAPFC DEBUG: f = 21.7/71.83427953578507 = 0.30208418794246966
makeAPFC DEBUG: inflow: E1.G1 = 10.864279535785071, CP = 3.2819270611476243 --> component for: L2_PF.G1 (2-0)
makeAPFC DEBUG: P_other_side = 3.2819270611476243 --> component for: L2_PT.G1
makeAPFC DEBUG: inflow: G2.G2 = 60.97, CP = 18.418072938852376 --> component for: L2_PF.G2 (2-0)
makeAPFC DEBUG: P_other_side = 18.418072938852376 --> component for: L2_PT.G2
makeAPFC DEBUG: Processing bus k = 3
makeAPFC DEBUG: B[3]: ['E2'], [14.956534996506715], ['PT'], [1], sum(P) = 14.956534996506715
makeAPFC DEBUG: A[3]: ['E4', 'L3'], [12.556534972804162, 2.4], ['PF', 'PF'], [1, 1], sum(P) = 14.956534972804162
makeAPFC DEBUG: outflow: E4_PF (3-4)
makeAPFC DEBUG: f = 12.556534972804162/14.956534996506715 = 0.8395350243714134
makeAPFC DEBUG: inflow: E2.G1 = 14.956534996506715, CP = 12.556534972804162 --> component for: E4_PF.G1 (3-4)
makeAPFC DEBUG: P_other_side = 12.538244378560211 --> component for: E4_PT.G1
makeAPFC DEBUG: outflow: L3_PF (3-0)
makeAPFC DEBUG: f = 2.4/14.956534996506715 = 0.16046497404382432
makeAPFC DEBUG: inflow: E2.G1 = 14.956534996506715, CP = 2.4 --> component for: L3_PF.G1 (3-0)
makeAPFC DEBUG: P_other_side = 2.4 --> component for: L3_PT.G1
makeAPFC DEBUG: Processing bus k = 4
makeAPFC DEBUG:     not all APFC known, skipping ...
makeAPFC DEBUG: Processing bus k = 5
makeAPFC DEBUG: B[5]: ['E5'], [13.681590208861246], ['PT'], [1], sum(P) = 13.681590208861246
makeAPFC DEBUG: A[5]: ['E8'], [13.681590188745533], ['PF'], [1], sum(P) = 13.681590188745533
makeAPFC DEBUG: outflow: E8_PF (5-7)
makeAPFC DEBUG: f = 13.681590188745533/13.681590208861246 = 0.999999998529724
makeAPFC DEBUG: inflow: E5.G1 = 2.0692157210135536, CP = 2.069215717971235 --> component for: E8_PF.G1 (5-7)
makeAPFC DEBUG: P_other_side = 2.051036160029076 --> component for: E8_PT.G1
makeAPFC DEBUG: inflow: E5.G2 = 11.612374487847694, CP = 11.612374470774299 --> component for: E8_PF.G2 (5-7)
makeAPFC DEBUG: P_other_side = 11.510351355105879 --> component for: E8_PT.G2
makeAPFC DEBUG: Processing bus k = 6
makeAPFC DEBUG:     not all APFC known, skipping ...
makeAPFC DEBUG: Processing bus k = 7
makeAPFC DEBUG:     not all APFC known, skipping ...
makeAPFC DEBUG: Processing bus k = 8
makeAPFC DEBUG:     not all APFC known, skipping ...
makeAPFC DEBUG: Processing bus k = 9
makeAPFC DEBUG:     not all APFC known, skipping ...
makeAPFC DEBUG: Processing bus k = 10
makeAPFC DEBUG:     not all APFC known, skipping ...
makeAPFC DEBUG: Processing bus k = 12
makeAPFC DEBUG:     not all APFC known, skipping ...
makeAPFC DEBUG: Processing bus k = 13
makeAPFC DEBUG: B[13]: ['G13'], [37.0], ['PT'], [1], sum(P) = 37.0
makeAPFC DEBUG: A[13]: ['E15'], [36.999999996503256], ['PF'], [1], sum(P) = 36.999999996503256
makeAPFC DEBUG: outflow: E15_PF (13-12)
makeAPFC DEBUG: f = 36.999999996503256/37.0 = 0.9999999999054934
makeAPFC DEBUG: inflow: G13.G13 = 37.0, CP = 36.999999996503256 --> component for: E15_PF.G13 (13-12)
makeAPFC DEBUG: P_other_side = 36.99999999650326 --> component for: E15_PT.G13
makeAPFC DEBUG: Processing bus k = 14
makeAPFC DEBUG:     not all APFC known, skipping ...
makeAPFC DEBUG: Processing bus k = 15
makeAPFC DEBUG:     not all APFC known, skipping ...
makeAPFC DEBUG: Processing bus k = 16
makeAPFC DEBUG:     not all APFC known, skipping ...
makeAPFC DEBUG: Processing bus k = 17
makeAPFC DEBUG:     not all APFC known, skipping ...
makeAPFC DEBUG: Processing bus k = 18
makeAPFC DEBUG:     not all APFC known, skipping ...
makeAPFC DEBUG: Processing bus k = 19
makeAPFC DEBUG:     not all APFC known, skipping ...
makeAPFC DEBUG: Processing bus k = 20
makeAPFC DEBUG:     not all APFC known, skipping ...
makeAPFC DEBUG: Processing bus k = 21
makeAPFC DEBUG:     not all APFC known, skipping ...
makeAPFC DEBUG: Processing bus k = 22
makeAPFC DEBUG:     not all APFC known, skipping ...
makeAPFC DEBUG: Processing bus k = 23
makeAPFC DEBUG: B[23]: ['G23'], [19.2], ['PT'], [1], sum(P) = 19.2
makeAPFC DEBUG: A[23]: ['E29', 'E31', 'L23'], [8.91466656447381, 7.085333440242353, 3.2], ['PF', 'PF', 'PF'], [1, 1, 1], sum(P) = 19.200000004716163
makeAPFC DEBUG: outflow: E29_PF (23-15)
makeAPFC DEBUG: f = 8.91466656447381/19.2 = 0.46430555023301096
makeAPFC DEBUG: inflow: G23.G23 = 19.2, CP = 8.91466656447381 --> component for: E29_PF.G23 (23-15)
makeAPFC DEBUG: P_other_side = 8.805305769580865 --> component for: E29_PT.G23
makeAPFC DEBUG: outflow: E31_PF (23-24)
makeAPFC DEBUG: f = 7.085333440242353/19.2 = 0.36902778334595593
makeAPFC DEBUG: inflow: G23.G23 = 19.2, CP = 7.085333440242354 --> component for: E31_PF.G23 (23-24)
makeAPFC DEBUG: P_other_side = 7.019055421380162 --> component for: E31_PT.G23
makeAPFC DEBUG: outflow: L23_PF (23-0)
makeAPFC DEBUG: f = 3.2/19.2 = 0.16666666666666669
makeAPFC DEBUG: inflow: G23.G23 = 19.2, CP = 3.2 --> component for: L23_PF.G23 (23-0)
makeAPFC DEBUG: P_other_side = 3.2 --> component for: L23_PT.G23
makeAPFC DEBUG: Processing bus k = 24
makeAPFC DEBUG:     not all APFC known, skipping ...
makeAPFC DEBUG: Processing bus k = 25
makeAPFC DEBUG:     not all APFC known, skipping ...
makeAPFC DEBUG: Processing bus k = 26
makeAPFC DEBUG:     not all APFC known, skipping ...
makeAPFC DEBUG: Processing bus k = 27
makeAPFC DEBUG: B[27]: ['G27'], [26.91], ['PT'], [1], sum(P) = 26.91
makeAPFC DEBUG: A[27]: ['E34', 'E35', 'E36', 'E37'], [7.5007280461246575, 6.112995010702004, 6.173882002210096, 7.122394947671047], ['PF', 'PF', 'PF', 'PF'], [1, 1, 1, 1], sum(P) = 26.910000006707804
makeAPFC DEBUG: outflow: E34_PF (27-25)
makeAPFC DEBUG: f = 7.5007280461246575/26.91 = 0.2787338553000616
makeAPFC DEBUG: inflow: G27.G27 = 26.91, CP = 7.500728046124658 --> component for: E34_PF.G27 (27-25)
makeAPFC DEBUG: P_other_side = 7.438164986973264 --> component for: E34_PT.G27
makeAPFC DEBUG: outflow: E35_PF (27-28)
makeAPFC DEBUG: f = 6.112995010702004/26.91 = 0.22716443740995929
makeAPFC DEBUG: inflow: G27.G27 = 26.91, CP = 6.112995010702004 --> component for: E35_PF.G27 (27-28)
makeAPFC DEBUG: P_other_side = 6.112995010702004 --> component for: E35_PT.G27
makeAPFC DEBUG: outflow: E36_PF (27-29)
makeAPFC DEBUG: f = 6.173882002210096/26.91 = 0.22942705322222579
makeAPFC DEBUG: inflow: G27.G27 = 26.91, CP = 6.173882002210096 --> component for: E36_PF.G27 (27-29)
makeAPFC DEBUG: P_other_side = 6.083785911189028 --> component for: E36_PT.G27
makeAPFC DEBUG: outflow: E37_PF (27-30)
makeAPFC DEBUG: f = 7.122394947671047/26.91 = 0.2646746543170215
makeAPFC DEBUG: inflow: G27.G27 = 26.91, CP = 7.122394947671048 --> component for: E37_PF.G27 (27-30)
makeAPFC DEBUG: P_other_side = 6.951090401110047 --> component for: E37_PT.G27
makeAPFC DEBUG: Processing bus k = 28
makeAPFC DEBUG: B[28]: ['E35'], [6.112995010702004], ['PT'], [1], sum(P) = 6.112995010702004
makeAPFC DEBUG: A[28]: ['E39', 'E40'], [5.3413788402797415, 0.7716161805216454], ['PF', 'PF'], [1, 1], sum(P) = 6.112995020801387
makeAPFC DEBUG: outflow: E39_PF (28-8)
makeAPFC DEBUG: f = 5.3413788402797415/6.112995010702004 = 0.8737744478653432
makeAPFC DEBUG: inflow: E35.G27 = 6.112995010702004, CP = 5.3413788402797415 --> component for: E39_PF.G27 (28-8)
makeAPFC DEBUG: P_other_side = 5.305754125651575 --> component for: E39_PT.G27
makeAPFC DEBUG: outflow: E40_PF (28-6)
makeAPFC DEBUG: f = 0.7716161805216454/6.112995010702004 = 0.12622555378677375
makeAPFC DEBUG: inflow: E35.G27 = 6.112995010702004, CP = 0.7716161805216454 --> component for: E40_PF.G27 (28-6)
makeAPFC DEBUG: P_other_side = 0.7704442331875749 --> component for: E40_PT.G27
makeAPFC DEBUG: Processing bus k = 29
makeAPFC DEBUG: B[29]: ['E36'], [6.083785911189028], ['PT'], [1], sum(P) = 6.083785911189028
makeAPFC DEBUG: A[29]: ['E38', 'L29'], [3.683785909594939, 2.4], ['PF', 'PF'], [1, 1], sum(P) = 6.083785909594939
makeAPFC DEBUG: outflow: E38_PF (29-30)
makeAPFC DEBUG: f = 3.683785909594939/6.083785911189028 = 0.6055088005019841
makeAPFC DEBUG: inflow: E36.G27 = 6.083785911189028, CP = 3.683785909594939 --> component for: E38_PF.G27 (29-30)
makeAPFC DEBUG: P_other_side = 3.6489095936350364 --> component for: E38_PT.G27
makeAPFC DEBUG: outflow: L29_PF (29-0)
makeAPFC DEBUG: f = 2.4/6.083785911189028 = 0.3944911992359933
makeAPFC DEBUG: inflow: E36.G27 = 6.083785911189028, CP = 2.4 --> component for: L29_PF.G27 (29-0)
makeAPFC DEBUG: P_other_side = 2.4 --> component for: L29_PT.G27
makeAPFC DEBUG: Processing bus k = 30
makeAPFC DEBUG: B[30]: ['E37', 'E38'], [6.951090401110046, 3.6489095936350364], ['PT', 'PT'], [1, 1], sum(P) = 10.599999994745083
makeAPFC DEBUG: A[30]: ['L30'], [10.6], ['PF'], [1], sum(P) = 10.6
makeAPFC DEBUG: outflow: L30_PF (30-0)
makeAPFC DEBUG: f = 10.6/10.599999994745083 = 1.0000000004957468
makeAPFC DEBUG: inflow: E37.G27 = 6.951090401110047, CP = 6.951090404556028 --> component for: L30_PF.G27 (30-0)
makeAPFC DEBUG: P_other_side = 6.951090404556028 --> component for: L30_PT.G27
makeAPFC DEBUG: inflow: E38.G27 = 3.6489095936350364, CP = 3.6489095954439716 --> component for: L30_PF.G27 (30-0)
makeAPFC DEBUG: P_other_side = 3.6489095954439716 --> component for: L30_PT.G27
makeAPFC INFO: iter = 1, time = 0.004
makeAPFC DEBUG: ========== Start of iteration 2 ==========
makeAPFC DEBUG: Processing bus k = 4
makeAPFC DEBUG:     not all APFC known, skipping ...
makeAPFC DEBUG: Processing bus k = 6
makeAPFC DEBUG:     not all APFC known, skipping ...
makeAPFC DEBUG: Processing bus k = 7
makeAPFC DEBUG:     not all APFC known, skipping ...
makeAPFC DEBUG: Processing bus k = 8
makeAPFC DEBUG:     not all APFC known, skipping ...
makeAPFC DEBUG: Processing bus k = 9
makeAPFC DEBUG:     not all APFC known, skipping ...
makeAPFC DEBUG: Processing bus k = 10
makeAPFC DEBUG:     not all APFC known, skipping ...
makeAPFC DEBUG: Processing bus k = 12
makeAPFC DEBUG: B[12]: ['E15'], [36.99999999650326], ['PT'], [1], sum(P) = 36.99999999650326
makeAPFC DEBUG: A[12]: ['E14', 'E16', 'E17', 'E18', 'L12'], [1.6715620287675, 5.387777267210772, 9.477029234467182, 9.26363145964912, 11.2], ['PF', 'PF', 'PF', 'PF', 'PF'], [1, 1, 1, 1, 1], sum(P) = 36.99999999009458
makeAPFC DEBUG: outflow: E14_PF (12-4)
makeAPFC DEBUG: f = 1.6715620287675/36.99999999650326 = 0.0451773521331209
makeAPFC DEBUG: inflow: E15.G13 = 36.99999999650326, CP = 1.6715620287675 --> component for: E14_PF.G13 (12-4)
makeAPFC DEBUG: P_other_side = 1.6715620287674995 --> component for: E14_PT.G13
makeAPFC DEBUG: outflow: E16_PF (12-14)
makeAPFC DEBUG: f = 5.387777267210772/36.99999999650326 = 0.14561560183026898
makeAPFC DEBUG: inflow: E15.G13 = 36.99999999650326, CP = 5.387777267210772 --> component for: E16_PF.G13 (12-14)
makeAPFC DEBUG: P_other_side = 5.350953753221079 --> component for: E16_PT.G13
makeAPFC DEBUG: outflow: E17_PF (12-15)
makeAPFC DEBUG: f = 9.477029234467182/36.99999999650326 = 0.2561359252800763
makeAPFC DEBUG: inflow: E15.G13 = 36.99999999650326, CP = 9.477029234467182 --> component for: E17_PF.G13 (12-15)
makeAPFC DEBUG: P_other_side = 9.4114764633922 --> component for: E17_PT.G13
...

components INFO: Calculate reactive power flow components
makeRPFC INFO: Starting ...
makeReactiveFlows INFO: Swap branch orientation when both QF and QT are negative (20)
makeReactiveFlows DEBUG: Before swap
    F_BUS  T_BUS      QF      QT    QSF    QST  TAP
0       1      2  -5.086  -2.165  1.500  1.500  1.0
10      6      9  -3.356  -3.456  0.000  0.000  1.0
11      6     10  -1.918  -2.004  0.000  0.000  1.0
12      9     10  -3.456  -3.508  0.000  0.000  1.0
13      4     12  -2.023  -2.041  0.000  0.000  1.0
14     12     13  -9.256 -11.353  0.000  0.000  1.0
16     12     15  -1.063  -1.185  0.000  0.000  1.0
17     12     16  -0.101  -0.278  0.000  0.000  1.0
18     14     15  -0.801  -0.804  0.000  0.000  1.0
19     16     17  -2.078  -2.151  0.000  0.000  1.0
21     18     19  -0.334  -0.382  0.000  0.000  1.0
22     19     20  -3.782  -3.803  0.000  0.000  1.0
25     10     21 -11.667 -11.769  0.000  0.000  1.0
26     10     22  -8.483  -8.616  0.000  0.000  1.0
27     21     22 -22.969 -23.155  0.000  0.000  1.0
28     15     23  -5.248  -5.467  0.000  0.000  1.0
33     25     27  -0.665  -0.784  0.000  0.000  1.0
34     28     27  -6.085  -6.398  0.000  0.000  1.0
38      8     28  -6.084  -4.330  0.923  0.950  1.0
39      6     28  -2.700  -1.755  0.474  0.475  1.0
makeReactiveFlows DEBUG: After swap
    F_BUS  T_BUS      QF      QT    QSF    QST  TAP
0       2      1   2.165   5.086  1.500  1.500  1.0
10      9      6   3.456   3.356  0.000  0.000  1.0
11     10      6   2.004   1.918  0.000  0.000  1.0
12     10      9   3.508   3.456  0.000  0.000  1.0
13     12      4   2.041   2.023  0.000  0.000  1.0
14     13     12  11.353   9.256  0.000  0.000  1.0
16     15     12   1.185   1.063  0.000  0.000  1.0
17     16     12   0.278   0.101  0.000  0.000  1.0
18     15     14   0.804   0.801  0.000  0.000  1.0
19     17     16   2.151   2.078  0.000  0.000  1.0
21     19     18   0.382   0.334  0.000  0.000  1.0
22     20     19   3.803   3.782  0.000  0.000  1.0
25     21     10  11.769  11.667  0.000  0.000  1.0
26     22     10   8.616   8.483  0.000  0.000  1.0
27     22     21  23.155  22.969  0.000  0.000  1.0
28     23     15   5.467   5.248  0.000  0.000  1.0
33     27     25   0.784   0.665  0.000  0.000  1.0
34     27     28   6.398   6.085  0.000  0.000  1.0
38     28      8   4.330   6.084  0.950  0.923  1.0
39     28      6   1.755   2.700  0.475  0.474  1.0
makeReactiveFlows INFO: Shunts with positive power converted to generators (2)
makeReactiveFlows DEBUG: Shunts with positive power converted to generators
    F_BUS  T_BUS     QF TYPE   ID     QT    QF1    QT1  QSF  QST  TAP
4       0      5  0.183    G   S5  0.183  0.183  0.183    0    0    1
23      0     24  0.039    G  S24  0.039  0.039  0.039    0    0    1
makeReactiveFlows INFO: Generators with negative power converted to loads (1)
makeReactiveFlows DEBUG: Generators with negative power converted to loads
   F_BUS  T_BUS     QT TYPE  ID     QF    QF1    QT1  QSF  QST  TAP
0      1      0  0.998    L  G1  0.998  0.998  0.998    0    0    1
makeRPFC DEBUG: =============== Sets C and D ===============
makeRPFC DEBUG: C[1] = {'E2': {'Q': 4.08788450961417, 'side': 'QF', 'sign': 1}, 'G1': {'Q': 0.9984842375152958, 'side': 'QF', 'sign': 1}}
makeRPFC DEBUG: D[1] = {'E1': {'Q': 5.086368747129555, 'side': 'QT', 'sign': 1}}

makeRPFC DEBUG: C[2] = {'E1': {'Q': 2.165248717927109, 'side': 'QF', 'sign': 1}, 'E3': {'Q': 5.206210990132049, 'side': 'QF', 'sign': 1}, 'E5': {'Q': 4.505865254024341, 'side': 'QF', 'sign': 1}, 'E6': {'Q': 7.421657034275111, 'side': 'QF', 'sign': 1}, 'L2': {'Q': 12.7, 'side': 'QF', 'sign': 1}}
makeRPFC DEBUG: D[2] = {'G2': {'Q': 31.99898199635861, 'side': 'QT', 'sign': 1}}

makeRPFC DEBUG: C[3] = {'E4': {'Q': 4.373003660510843, 'side': 'QF', 'sign': 1}, 'L3': {'Q': 1.2, 'side': 'QF', 'sign': 1}}
makeRPFC DEBUG: D[3] = {'E2': {'Q': 5.573003641481572, 'side': 'QT', 'sign': 1}}

makeRPFC DEBUG: C[4] = {'E7': {'Q': 11.3847991297108, 'side': 'QF', 'sign': 1}, 'L4': {'Q': 1.6, 'side': 'QF', 'sign': 1}}
makeRPFC DEBUG: D[4] = {'E3': {'Q': 6.662443598010971, 'side': 'QT', 'sign': 1}, 'E4': {'Q': 4.299841283535047, 'side': 'QT', 'sign': 1}, 'E14': {'Q': 2.0225142207057227, 'side': 'QT', 'sign': 1}}

makeRPFC DEBUG: C[5] = {'E8': {'Q': 6.213300735209193, 'side': 'QF', 'sign': 1}}
makeRPFC DEBUG: D[5] = {'E5': {'Q': 6.02992754999853, 'side': 'QT', 'sign': 1}, 'S5': {'Q': 0.18337316776387438, 'side': 'QT', 'sign': 1}}

makeRPFC DEBUG: C[6] = {'E9': {'Q': 3.1670879394591913, 'side': 'QF', 'sign': 1}, 'E10': {'Q': 24.428096383289084, 'side': 'QF', 'sign': 1}}
makeRPFC DEBUG: D[6] = {'E6': {'Q': 8.501137699382248, 'side': 'QT', 'sign': 1}, 'E7': {'Q': 11.120032758662157, 'side': 'QT', 'sign': 1}, 'E11': {'Q': 3.3563351357288265, 'side': 'QT', 'sign': 1}, 'E12': {'Q': 1.917905789872983, 'side': 'QT', 'sign': 1}, 'E40': {'Q': 2.6997728755716195, 'side': 'QT', 'sign': 1}}

makeRPFC DEBUG: C[7] = {'L7': {'Q': 10.9, 'side': 'QF', 'sign': 1}}
makeRPFC DEBUG: D[7] = {'E8': {'Q': 6.875263567523396, 'side': 'QT', 'sign': 1}, 'E9': {'Q': 4.0247364320572085, 'side': 'QT', 'sign': 1}}

makeRPFC DEBUG: C[8] = {'L8': {'Q': 30.0, 'side': 'QF', 'sign': 1}}
makeRPFC DEBUG: D[8] = {'E10': {'Q': 23.915839839097643, 'side': 'QT', 'sign': 1}, 'E39': {'Q': 6.084160143205035, 'side': 'QT', 'sign': 1}}

makeRPFC DEBUG: C[9] = {'E11': {'Q': 3.455620347641037, 'side': 'QF', 'sign': 1}}
makeRPFC DEBUG: D[9] = {'E13': {'Q': 3.455620337710613, 'side': 'QT', 'sign': 1}}

makeRPFC DEBUG: C[10] = {'E12': {'Q': 2.004358219358538, 'side': 'QF', 'sign': 1}, 'E13': {'Q': 3.507626877398123, 'side': 'QF', 'sign': 1}, 'E24': {'Q': 4.624776916497693, 'side': 'QF', 'sign': 1}, 'E25': {'Q': 8.012955978116706, 'side': 'QF', 'sign': 1}, 'L10': {'Q': 2.0, 'side': 'QF', 'sign': 1}}
makeRPFC DEBUG: D[10] = {'E26': {'Q': 11.667002952172155, 'side': 'QT', 'sign': 1}, 'E27': {'Q': 8.482715027772205, 'side': 'QT', 'sign': 1}}

makeRPFC DEBUG: C[12] = {'E14': {'Q': 2.041148935492293, 'side': 'QF', 'sign': 1}, 'E16': {'Q': 0.8790629888728032, 'side': 'QF', 'sign': 1}, 'L12': {'Q': 7.5, 'side': 'QF', 'sign': 1}}
makeRPFC DEBUG: D[12] = {'E15': {'Q': 9.255834271437434, 'side': 'QT', 'sign': 1}, 'E17': {'Q': 1.063398522314777, 'side': 'QT', 'sign': 1}, 'E18': {'Q': 0.10097910020268415, 'side': 'QT', 'sign': 1}}

makeRPFC DEBUG: C[13] = {'E15': {'Q': 11.35287722074005, 'side': 'QF', 'sign': 1}}
makeRPFC DEBUG: D[13] = {'G13': {'Q': 11.352877220740048, 'side': 'QT', 'sign': 1}}

makeRPFC DEBUG: C[14] = {'L14': {'Q': 1.6, 'side': 'QF', 'sign': 1}}
makeRPFC DEBUG: D[14] = {'E16': {'Q': 0.7992787085618007, 'side': 'QT', 'sign': 1}, 'E19': {'Q': 0.8007212905683021, 'side': 'QT', 'sign': 1}}

makeRPFC DEBUG: C[15] = {'E17': {'Q': 1.1851393828825971, 'side': 'QF', 'sign': 1}, 'E19': {'Q': 0.8035770143933085, 'side': 'QF', 'sign': 1}, 'E21': {'Q': 0.7596924295677808, 'side': 'QF', 'sign': 1}, 'L15': {'Q': 2.5, 'side': 'QF', 'sign': 1}}
makeRPFC DEBUG: D[15] = {'E29': {'Q': 5.248408821791807, 'side': 'QT', 'sign': 1}}

...